REMARK SMILES c1ccccc1
REMARK SMILES IDX 3 1 2 2 1 3 6 4 5 5 4 6
REMARK H PARENT
ROOT
ATOM      1  C   UNL     1       0.800  -1.148  -0.007  1.00  0.00     0.000 A 
ATOM      2  C   UNL     1      -0.594  -1.266  -0.024  1.00  0.00     0.000 A 
ATOM      3  C   UNL     1      -1.394  -0.118  -0.017  1.00  0.00     0.000 A 
ATOM      4  C   UNL     1      -0.800   1.148   0.007  1.00  0.00     0.000 A 
ATOM      5  C   UNL     1       0.594   1.266   0.024  1.00  0.00     0.000 A 
ATOM      6  C   UNL     1       1.394   0.118   0.017  1.00  0.00     0.000 A 
ENDROOT
TORSDOF 0
